
#======================================================================
# CRYSTAL DATA
#----------------------------------------------------------------------
data_VESTA_phase_1

_chemical_name_common                  'NGO                                   '
_cell_length_a                         17.237221
_cell_length_b                         17.237221
_cell_length_c                         25.025002
_cell_angle_alpha                      90.000000
_cell_angle_beta                       90.000000
_cell_angle_gamma                      120.000000
_cell_volume                           6439.308498
_space_group_name_H-M_alt              'P 1'
_space_group_IT_number                 1

loop_
_space_group_symop_operation_xyz
   'x, y, z'

loop_
   _atom_site_label
   _atom_site_occupancy
   _atom_site_fract_x
   _atom_site_fract_y
   _atom_site_fract_z
   _atom_site_adp_type
   _atom_site_U_iso_or_equiv
   _atom_site_type_symbol
   C1         1.0     0.000210     0.999929     0.199250    Uiso  ? C
   C2         1.0     0.094908     0.046717     0.202168    Uiso  ? C
   C3         1.0     0.142198     0.000448     0.198284    Uiso  ? C
   C4         1.0     0.238367     0.048246     0.198227    Uiso  ? C
   C5         1.0     0.285149     0.000573     0.196944    Uiso  ? C
   C6         1.0     0.380876     0.048231     0.196269    Uiso  ? C
   C7         1.0     0.428428     0.000588     0.197345    Uiso  ? C
   C8         1.0     0.523807     0.048572     0.196618    Uiso  ? C
   C9         1.0     0.571627     0.000611     0.196410    Uiso  ? C
   C10        1.0     0.666721     0.047733     0.195715    Uiso  ? C
   C11        1.0     0.713938     0.999680     0.198531    Uiso  ? C
   C12        1.0     0.809555     0.047792     0.198609    Uiso  ? C
   C13        1.0     0.857604     0.999756     0.199941    Uiso  ? C
   C14        1.0     0.952339     0.047642     0.199487    Uiso  ? C
   C15        1.0     0.000870     0.143565     0.198517    Uiso  ? C
   C16        1.0     0.095199     0.191595     0.202017    Uiso  ? C
   C17        1.0     0.143674     0.143634     0.217923    Uiso  ? C
   C18        1.0     0.240661     0.192410     0.202165    Uiso  ? C
   C19        1.0     0.286104     0.144035     0.198211    Uiso  ? C
   C20        1.0     0.381479     0.192049     0.195667    Uiso  ? C
   C21        1.0     0.428278     0.143349     0.195471    Uiso  ? C
   C22        1.0     0.523232     0.191309     0.197100    Uiso  ? C
   C23        1.0     0.571034     0.143630     0.197132    Uiso  ? C
   C24        1.0     0.667030     0.191077     0.196941    Uiso  ? C
   C25        1.0     0.714523     0.143113     0.195069    Uiso  ? C
   C26        1.0     0.809507     0.190649     0.195056    Uiso  ? C
   C27        1.0     0.857148     0.142479     0.195933    Uiso  ? C
   C28        1.0     0.952713     0.190672     0.195692    Uiso  ? C
   C29        1.0     0.000226     0.285956     0.194772    Uiso  ? C
   C30        1.0     0.095428     0.333521     0.195694    Uiso  ? C
   C31        1.0     0.143071     0.285847     0.198925    Uiso  ? C
   C32        1.0     0.238687     0.334307     0.199888    Uiso  ? C
   C33        1.0     0.286911     0.286643     0.199694    Uiso  ? C
   C34        1.0     0.381932     0.334787     0.197270    Uiso  ? C
   C35        1.0     0.429278     0.287510     0.196118    Uiso  ? C
   C36        1.0     0.524681     0.334663     0.197939    Uiso  ? C
   C37        1.0     0.569752     0.286421     0.199841    Uiso  ? C
   C38        1.0     0.665775     0.332429     0.211096    Uiso  ? C
   C39        1.0     0.715065     0.284918     0.200381    Uiso  ? C
   C40        1.0     0.809025     0.333100     0.198128    Uiso  ? C
   C41        1.0     0.857064     0.285845     0.195256    Uiso  ? C
   C42        1.0     0.952417     0.333581     0.194504    Uiso  ? C
   C43        1.0     0.999800     0.428547     0.194830    Uiso  ? C
   C44        1.0     0.095182     0.475905     0.195497    Uiso  ? C
   C45        1.0     0.143360     0.428717     0.196109    Uiso  ? C
   C46        1.0     0.238923     0.476445     0.198471    Uiso  ? C
   C47        1.0     0.286878     0.428593     0.198933    Uiso  ? C
   C48        1.0     0.382879     0.476634     0.198860    Uiso  ? C
   C49        1.0     0.524102     0.477249     0.198193    Uiso  ? C
   C50        1.0     0.664831     0.478529     0.200954    Uiso  ? C
   C51        1.0     0.714116     0.430970     0.211219    Uiso  ? C
   C52        1.0     0.810574     0.477847     0.200500    Uiso  ? C
   C53        1.0     0.856835     0.429543     0.198313    Uiso  ? C
   C54        1.0     0.951938     0.476361     0.195902    Uiso  ? C
   C55        1.0     0.999891     0.571795     0.196042    Uiso  ? C
   C56        1.0     0.094942     0.619138     0.197435    Uiso  ? C
   C57        1.0     0.142955     0.571159     0.198028    Uiso  ? C
   C58        1.0     0.237011     0.616761     0.202874    Uiso  ? C
   C59        1.0     0.285864     0.571061     0.201807    Uiso  ? C
   C60        1.0     0.382564     0.618643     0.202987    Uiso  ? C
   C61        1.0     0.429815     0.570768     0.199816    Uiso  ? C
   C62        1.0     0.570579     0.570269     0.197640    Uiso  ? C
   C63        1.0     0.711630     0.570596     0.198268    Uiso  ? C
   C64        1.0     0.808011     0.619092     0.197859    Uiso  ? C
   C65        1.0     0.856438     0.571601     0.197493    Uiso  ? C
   C66        1.0     0.951895     0.619309     0.195678    Uiso  ? C
   C67        1.0     0.999214     0.714443     0.194923    Uiso  ? C
   C68        1.0     0.094648     0.762299     0.195251    Uiso  ? C
   C69        1.0     0.142373     0.714660     0.197726    Uiso  ? C
   C70        1.0     0.236536     0.762922     0.202325    Uiso  ? C
   C71        1.0     0.283088     0.713039     0.213597    Uiso  ? C
   C72        1.0     0.383611     0.763301     0.214451    Uiso  ? C
   C73        1.0     0.430879     0.713185     0.205177    Uiso  ? C
   C74        1.0     0.523940     0.760467     0.202045    Uiso  ? C
   C75        1.0     0.572102     0.713145     0.199693    Uiso  ? C
   C76        1.0     0.665217     0.759138     0.200881    Uiso  ? C
   C77        1.0     0.713439     0.713591     0.198410    Uiso  ? C
   C78        1.0     0.807654     0.760534     0.198360    Uiso  ? C
   C79        1.0     0.855696     0.713376     0.196834    Uiso  ? C
   C80        1.0     0.951332     0.761486     0.195297    Uiso  ? C
   C81        1.0     0.999256     0.857014     0.195253    Uiso  ? C
   C82        1.0     0.094428     0.904895     0.195379    Uiso  ? C
   C83        1.0     0.142352     0.857358     0.195559    Uiso  ? C
   C84        1.0     0.237666     0.905035     0.197230    Uiso  ? C
   C85        1.0     0.284768     0.856916     0.200554    Uiso  ? C
   C86        1.0     0.381546     0.905167     0.200737    Uiso  ? C
   C87        1.0     0.429979     0.859606     0.202930    Uiso  ? C
   C88        1.0     0.524103     0.905408     0.198828    Uiso  ? C
   C89        1.0     0.572246     0.857401     0.201060    Uiso  ? C
   C90        1.0     0.665451     0.904841     0.202724    Uiso  ? C
   C91        1.0     0.713587     0.855719     0.217591    Uiso  ? C
   C92        1.0     0.810497     0.904891     0.202365    Uiso  ? C
   C93        1.0     0.855928     0.857049     0.198544    Uiso  ? C
   C94        1.0     0.951712     0.904633     0.196518    Uiso  ? C
   N1         1.0     0.429271     0.428634     0.197906    Uiso  ? N
   N2         1.0     0.569845     0.428596     0.199595    Uiso  ? N
   N3         1.0     0.524622     0.618852     0.198213    Uiso  ? N
   N4         1.0     0.665445     0.619429     0.196225    Uiso  ? N
   O1         1.0     0.688417     0.380656     0.263224    Uiso  ? O
   O2         1.0     0.332863     0.738126     0.264659    Uiso  ? O
   O3         1.0     0.710287     0.848822     0.277494    Uiso  ? O
   O4         1.0     0.149772     0.146987     0.278008    Uiso  ? O
   H1         1.0     0.743652     0.909925     0.291402    Uiso  ? H
   H2         1.0     0.088437     0.112513     0.291399    Uiso  ? H
