
#======================================================================
# CRYSTAL DATA
#----------------------------------------------------------------------
data_VESTA_phase_1

_chemical_name_common                  '4-C4-COOH-O                           '
_cell_length_a                         17.237200
_cell_length_b                         17.237200
_cell_length_c                         25.025000
_cell_angle_alpha                      90.000000
_cell_angle_beta                       90.000000
_cell_angle_gamma                      120.000000
_cell_volume                           6439.292332
_space_group_name_H-M_alt              'P 1'
_space_group_IT_number                 1

loop_
_space_group_symop_operation_xyz
   'x, y, z'

loop_
   _atom_site_label
   _atom_site_occupancy
   _atom_site_fract_x
   _atom_site_fract_y
   _atom_site_fract_z
   _atom_site_adp_type
   _atom_site_U_iso_or_equiv
   _atom_site_type_symbol
   C1         1.0     0.000876     0.998774     0.197424    Uiso  ? C
   C2         1.0     0.095842     0.046600     0.200394    Uiso  ? C
   C3         1.0     0.144376     0.001745     0.195823    Uiso  ? C
   C4         1.0     0.240767     0.050587     0.196773    Uiso  ? C
   C5         1.0     0.287283     0.002856     0.195813    Uiso  ? C
   C6         1.0     0.383055     0.051033     0.196005    Uiso  ? C
   C7         1.0     0.429899     0.002340     0.197586    Uiso  ? C
   C8         1.0     0.525206     0.049029     0.197034    Uiso  ? C
   C9         1.0     0.572202     0.999863     0.197054    Uiso  ? C
   C10        1.0     0.667058     0.045773     0.196317    Uiso  ? C
   C11        1.0     0.713560     0.996691     0.198644    Uiso  ? C
   C12        1.0     0.808972     0.044762     0.198555    Uiso  ? C
   C13        1.0     0.856831     0.996262     0.199095    Uiso  ? C
   C14        1.0     0.951871     0.045193     0.198805    Uiso  ? C
   C15        1.0     0.000230     0.141281     0.198700    Uiso  ? C
   C16        1.0     0.094517     0.190068     0.202244    Uiso  ? C
   C17        1.0     0.144318     0.143099     0.217233    Uiso  ? C
   C18        1.0     0.242091     0.193876     0.201952    Uiso  ? C
   C19        1.0     0.288802     0.147139     0.197845    Uiso  ? C
   C20        1.0     0.385015     0.197083     0.196046    Uiso  ? C
   C21        1.0     0.430551     0.146670     0.195308    Uiso  ? C
   C22        1.0     0.525721     0.193359     0.196738    Uiso  ? C
   C23        1.0     0.572785     0.144112     0.197161    Uiso  ? C
   C24        1.0     0.668283     0.189896     0.197035    Uiso  ? C
   C25        1.0     0.715070     0.141175     0.195587    Uiso  ? C
   C26        1.0     0.809818     0.188446     0.195550    Uiso  ? C
   C27        1.0     0.856730     0.139744     0.196314    Uiso  ? C
   C28        1.0     0.952221     0.188403     0.196098    Uiso  ? C
   C29        1.0     0.999615     0.283737     0.195045    Uiso  ? C
   C30        1.0     0.094516     0.331852     0.196155    Uiso  ? C
   C31        1.0     0.141703     0.284165     0.199431    Uiso  ? C
   C32        1.0     0.237404     0.333424     0.200282    Uiso  ? C
   C33        1.0     0.287863     0.288490     0.199878    Uiso  ? C
   C34        1.0     0.384086     0.340758     0.197890    Uiso  ? C
   C35        1.0     0.433389     0.293881     0.197221    Uiso  ? C
   C36        1.0     0.529989     0.340249     0.198677    Uiso  ? C
   C37        1.0     0.572354     0.287963     0.200070    Uiso  ? C
   C38        1.0     0.668403     0.331574     0.210546    Uiso  ? C
   C39        1.0     0.717042     0.283831     0.200474    Uiso  ? C
   C40        1.0     0.810697     0.331895     0.197898    Uiso  ? C
   C41        1.0     0.857765     0.283886     0.195300    Uiso  ? C
   C42        1.0     0.952554     0.331842     0.194223    Uiso  ? C
   C43        1.0     0.000407     0.427314     0.193577    Uiso  ? C
   C44        1.0     0.095088     0.475263     0.194891    Uiso  ? C
   C45        1.0     0.141895     0.427473     0.196535    Uiso  ? C
   C46        1.0     0.236217     0.475678     0.199309    Uiso  ? C
   C47        1.0     0.283070     0.427538     0.199447    Uiso  ? C
   C48        1.0     0.377441     0.475231     0.198868    Uiso  ? C
   C49        1.0     0.671139     0.477323     0.196948    Uiso  ? C
   C50        1.0     0.720442     0.431785     0.208230    Uiso  ? C
   C51        1.0     0.815601     0.477776     0.196919    Uiso  ? C
   C52        1.0     0.859752     0.428550     0.196359    Uiso  ? C
   C53        1.0     0.954363     0.475947     0.193207    Uiso  ? C
   C54        1.0     0.002305     0.571750     0.191776    Uiso  ? C
   C55        1.0     0.096616     0.619666     0.194365    Uiso  ? C
   C56        1.0     0.142864     0.570807     0.196995    Uiso  ? C
   C57        1.0     0.236232     0.616971     0.203216    Uiso  ? C
   C58        1.0     0.283388     0.570551     0.202776    Uiso  ? C
   C59        1.0     0.379320     0.618600     0.203676    Uiso  ? C
   C60        1.0     0.425400     0.571368     0.199400    Uiso  ? C
   C61        1.0     0.718865     0.571746     0.193669    Uiso  ? C
   C62        1.0     0.812994     0.618855     0.191789    Uiso  ? C
   C63        1.0     0.861004     0.571409     0.191321    Uiso  ? C
   C64        1.0     0.955459     0.619771     0.189575    Uiso  ? C
   C65        1.0     0.002123     0.715211     0.188880    Uiso  ? C
   C66        1.0     0.097135     0.763490     0.190633    Uiso  ? C
   C67        1.0     0.144256     0.715612     0.194459    Uiso  ? C
   C68        1.0     0.237759     0.764153     0.201094    Uiso  ? C
   C69        1.0     0.282978     0.713733     0.213657    Uiso  ? C
   C70        1.0     0.383557     0.764088     0.215322    Uiso  ? C
   C71        1.0     0.429817     0.713196     0.206020    Uiso  ? C
   C72        1.0     0.522482     0.757664     0.202252    Uiso  ? C
   C73        1.0     0.567616     0.705643     0.199511    Uiso  ? C
   C74        1.0     0.662324     0.751323     0.200113    Uiso  ? C
   C75        1.0     0.711780     0.706259     0.196736    Uiso  ? C
   C76        1.0     0.808668     0.757981     0.194530    Uiso  ? C
   C77        1.0     0.858828     0.713757     0.191365    Uiso  ? C
   C78        1.0     0.954390     0.762242     0.189596    Uiso  ? C
   C79        1.0     0.001577     0.857490     0.190875    Uiso  ? C
   C80        1.0     0.096960     0.906254     0.191676    Uiso  ? C
   C81        1.0     0.144729     0.858843     0.191980    Uiso  ? C
   C82        1.0     0.239797     0.906911     0.195401    Uiso  ? C
   C83        1.0     0.286227     0.858450     0.199837    Uiso  ? C
   C84        1.0     0.382788     0.906745     0.201157    Uiso  ? C
   C85        1.0     0.430513     0.860345     0.203835    Uiso  ? C
   C86        1.0     0.524424     0.904579     0.199547    Uiso  ? C
   C87        1.0     0.571609     0.855079     0.201208    Uiso  ? C
   C88        1.0     0.664645     0.901201     0.202129    Uiso  ? C
   C89        1.0     0.712154     0.850102     0.215647    Uiso  ? C
   C90        1.0     0.809626     0.901133     0.200176    Uiso  ? C
   C91        1.0     0.856319     0.854386     0.195344    Uiso  ? C
   C92        1.0     0.952624     0.903421     0.193373    Uiso  ? C
   C93        1.0     0.542462     0.520273     0.279998    Uiso  ? C
   N1         1.0     0.426492     0.433484     0.198084    Uiso  ? N
   N2         1.0     0.580592     0.434091     0.197959    Uiso  ? N
   N3         1.0     0.516591     0.613242     0.197365    Uiso  ? N
   N4         1.0     0.669162     0.613523     0.195620    Uiso  ? N
   O1         1.0     0.695056     0.384678     0.260204    Uiso  ? O
   O2         1.0     0.331450     0.738929     0.264882    Uiso  ? O
   O3         1.0     0.710961     0.844865     0.275457    Uiso  ? O
   O4         1.0     0.150051     0.144659     0.277192    Uiso  ? O
   O5         1.0     0.594737     0.495792     0.307109    Uiso  ? O
   O6         1.0     0.493931     0.540789     0.303259    Uiso  ? O
   H1         1.0     0.745154     0.906298     0.288811    Uiso  ? H
   H2         1.0     0.088644     0.111318     0.290619    Uiso  ? H
   H3         1.0     0.623671     0.473047     0.283056    Uiso  ? H
   Co1        1.0     0.548292     0.523571     0.203205    Uiso  ? Co
